Version 4
SHEET 1 948 680
WIRE 112 192 64 192
WIRE 208 192 176 192
WIRE 320 192 208 192
WIRE 432 192 384 192
WIRE 528 192 496 192
WIRE 656 192 528 192
WIRE 208 208 208 192
WIRE 528 208 528 192
WIRE 64 304 64 192
WIRE 112 304 64 304
WIRE 208 304 208 288
WIRE 208 304 176 304
WIRE 240 304 208 304
WIRE 320 304 320 192
WIRE 384 304 384 192
WIRE 384 304 368 304
WIRE 432 304 384 304
WIRE 528 304 528 288
WIRE 528 304 496 304
WIRE 560 304 528 304
WIRE 320 320 320 304
WIRE 320 320 304 320
WIRE 656 320 656 192
WIRE 656 320 624 320
WIRE 672 320 656 320
WIRE 64 336 64 304
WIRE 240 336 208 336
WIRE 384 336 384 304
WIRE 560 336 528 336
WIRE 64 432 64 416
WIRE 208 432 208 336
WIRE 384 432 384 416
WIRE 528 432 528 336
FLAG 64 432 0
FLAG 208 432 0
FLAG 384 432 0
FLAG 528 432 0
SYMBOL Opamps/opamp 272 384 M180
SYMATTR InstName U1
SYMBOL cap 64 288 R90
WINDOW 0 0 32 VBottom 2
WINDOW 3 32 32 VTop 2
SYMATTR InstName C1
SYMBOL res 48 320 R0
SYMATTR InstName R1
SYMBOL cap 176 288 R90
WINDOW 0 0 32 VBottom 2
WINDOW 3 32 32 VTop 2
SYMATTR InstName C2
SYMBOL res 192 192 R0
SYMATTR InstName R2
SYMBOL cap 176 176 R90
WINDOW 0 0 32 VBottom 2
WINDOW 3 32 32 VTop 2
SYMATTR InstName C3
SYMBOL Opamps/opamp 592 384 M180
SYMATTR InstName U2
SYMBOL cap 384 288 R90
WINDOW 0 0 32 VBottom 2
WINDOW 3 32 32 VTop 2
SYMATTR InstName C4
SYMBOL res 368 320 R0
SYMATTR InstName R3
SYMBOL cap 496 288 R90
WINDOW 0 0 32 VBottom 2
WINDOW 3 32 32 VTop 2
SYMATTR InstName C5
SYMBOL res 512 192 R0
SYMATTR InstName R4
SYMBOL cap 496 176 R90
WINDOW 0 0 32 VBottom 2
WINDOW 3 32 32 VTop 2
SYMATTR InstName C6
TEXT -48 296 Left 2 ;Vin
TEXT 680 304 Left 2 ;Vout
